
##########################################################################
#               Crystallographic Information Format file
#               Produced by PyCifRW module
#
#  This is a CIF file.  CIF has been adopted by the International
#  Union of Crystallography as the standard for data archiving and
#  transmission.
#
#  For information on this file format, follow the CIF links at
#  http://www.iucr.org
##########################################################################

data_0

loop_
  _atom_site_label
  _atom_site_fract_x
  _atom_site_fract_y
  _atom_site_fract_z
  _atom_site_type_symbol
         Hg1       0.7197905096326472  0.5928260254810775  -0.045782929108745284        Hg
         H1        0.09815312245830804           0.9327053463956945  -0.14138171460802493         H
         H2        0.8795076912428752  0.8971826817747908  -0.10603356289973669         H
         H3        0.06395698892902796           0.1561506562382915  -0.10406824693296435         H
         H4        0.8194878972885822  0.13626162887894622           -0.1307154694402908          H
         C1        0.7439016520700124  0.46574557832768537           -0.10457146744834944         C
         C2        0.6744341848840113  0.7548253613673174  2.526127698839401e-05        C
         C3        0.011340917033664336          0.9539897540780742  -0.10595517456598061         C
         C4        0.9320364915729447  0.10025594799355908           -0.10099775685822499         C
         N1        0.7545605972204485  0.3912536892012889  -0.13779751147865668         N
         N2        0.6421238820183699  0.849722834706202   0.02457075707486992           N
         Cl1       0.21332374289787784           0.6060657971391037  -0.02958984084611555         Cl
         Hg2       0.28020949036480963           0.40717397452874016           0.045782929108745284         Hg
         H5        0.9018468775366044  0.06729465362394793           0.14138171460802493          H
         H6        0.12049230875458226           0.1028173182350326  0.10603356289973669          H
         H7        0.9360430110684287  0.8438493437715544  0.10406824693296435           H
         H8        0.1805121026933365  0.8637383711307769  0.1307154694402908  H
         H9        0.7178417602913607  0.05003221438617689           0.0627398008413382 H
         H10       0.8242570811274125  0.18876107833595723           0.057618453017512346         H
         H11       0.839590854840451   0.22060403369618808           -0.038851544391999136        H
         H12       0.6824254461444405  0.1126749491768595  -0.04968272176578204         H
         C5        0.25609834792998865           0.5342544216723142  0.10457146744834944          C
         C6        0.32556581511344185           0.24517463864250322           -2.526127698839401e-05       C
         C7        0.9886590829482543  0.04601024593164171           0.10595517456598061          C
         C8        0.0679635084245133  0.8997440520162496  0.10099775685822499           C
         N3        0.24543940276401668           0.6087463107986032  0.1377975114824149 N
         N4        0.35787611798163427           0.15027716529381574           -0.02457075707486992         N
         N5        0.8565408848026873  0.08771410579594141           0.06162123079145159          N
         N6        0.8381955387257737  0.12524044495627396           -0.05032816187235865         N
         Cl2       0.7866762570891331  0.3939342028509696  0.02958984084611555           Cl
         Cu1       1.5552414120329702e-15        0.0       0.0       Cu
         H13       0.2821582396905613  0.9499677856235451  -0.0627398008413382           H
         H14       0.17574291885959795           0.8112389216541112  -0.057618453017512346        H
         H15       0.16040914515700577           0.7793959663136334  0.038851544391999136         H
         H16       0.3175745538504741  0.8873250508427724  0.04968272176578204           H
         N7        0.14345911518432286           0.9122858941941223  -0.06162123079145159         N
         N8        0.16180446125105613           0.8747595550730869  0.05032816187235865          N
_cell_angle_alpha                       90.0
_cell_angle_beta                        90.0
_cell_angle_gamma                       81.3254840316598
_cell_length_a                          6.425115582574767
_cell_length_b                          10.30160480536601
_cell_length_c                          26.6136844202001
